   42
scf done: -3088.605151
 O     0.324771    -0.238681     1.926768
Ce     0.013900    -0.032576    -0.099485
 O    -0.464831     1.455086    -2.145552
 O     2.401932    -0.771997     0.045800
 N     2.683599    -0.640281    -1.177050
 O     3.780052    -0.871740    -1.611963
 O     1.736451    -0.247940    -1.911092
 O     0.276597    -2.555429     0.019173
 O     1.590276     1.924340    -0.084721
 N     0.823773     2.763152     0.452358
 O     1.168795     3.886410     0.703994
 O    -0.341976     2.343036     0.711084
 O    -1.025907    -1.255590    -2.055017
 O    -2.363151     0.639179    -0.212814
 N    -2.867330    -0.404486     0.291785
 O    -4.053671    -0.534979     0.433009
 O    -2.043041    -1.288459     0.632725
Ce     0.508868    -0.004663     3.923510
 O     1.374397    -0.436178     6.253511
 O    -2.006213     0.132045     3.746094
 N    -2.209710     0.334114     4.967566
 O    -3.310596     0.506098     5.422455
 O    -1.176073     0.347819     5.698499
 O    -0.429868     2.357173     3.628993
 O    -0.674962    -2.203191     4.223858
 N     0.333834    -2.933544     4.037319
 O     0.272753    -4.134844     4.060887
 O     1.413874    -2.319465     3.821344
 O     3.000423    -0.211220     3.839982
 N     3.245293     1.009288     3.645556
 O     4.363714     1.431395     3.525326
 O     2.231815     1.758626     3.582532
 H    -0.604950     2.503042     2.683694
 H     1.102607    -2.851900     0.420188
 H     0.188165     3.052744     3.884810
 H    -0.429236    -3.033792     0.470923
 H    -0.987614    -0.729299    -2.863703
 H    -0.603403    -2.100597    -2.252376
 H     0.745846    -0.786188     6.896624
 H     0.275590     1.942190    -2.526853
 H     2.181314    -0.956347     6.349280
 H    -1.191164     2.086026    -2.073524
