   45
scf done: -3165.000555
Ce     0.478422    -0.003327     1.963395
Ce    -0.420585    -0.021491    -2.000261
 H    -0.157816     2.599341     0.605472
 H     0.178114    -2.962411    -1.399190
 H     0.932368     3.005162     1.612848
 H    -1.351733    -2.862195    -1.227401
 H     1.538862     0.820076     4.636033
 H    -1.958879    -0.533709    -4.543323
 H     0.970586     2.167483     4.149792
 H    -1.778480    -1.961443    -3.970329
 H     0.107451    -1.566167     4.657121
 H    -0.192944     1.718341    -4.603718
 H     1.490519    -2.032988     4.161716
 H    -1.446903     2.277858    -3.904536
 N    -2.214142     0.663675     2.956383
 N     1.861851    -1.208472    -3.440189
 N    -0.195621    -2.847478     1.663962
 N     1.006207     2.575532    -1.762448
 N     3.382869     0.368233     1.681865
 N    -3.219505     0.199050    -1.133301
 O     0.182675    -0.141107    -0.057587
 O    -1.953303     0.638457     1.728467
 O     1.769981    -1.220242    -2.182291
 O    -1.252055     0.373607     3.723426
 O     0.906612    -0.656179    -4.049121
 O    -3.304953     0.944863     3.381295
 O     2.799348    -1.691222    -4.019285
 O     0.135655     2.467194     1.524404
 O    -0.611481    -2.535380    -1.753061
 O    -1.049713    -1.986473     2.004673
 O     1.507548     1.574961    -2.331095
 O     0.976866    -2.415630     1.513503
 O    -0.176686     2.421891    -1.337699
 O    -0.482986    -4.004790     1.494049
 O     1.603613     3.610313    -1.626784
 O     1.487890     1.403498     3.866871
 O    -1.984947    -1.050688    -3.728019
 O     2.865290    -0.583517     2.330755
 O    -2.592927     1.136085    -1.704991
 O     2.569994     1.163871     1.147123
 O    -2.562039    -0.853296    -0.947602
 O     4.575188     0.501161     1.587912
 O    -4.367246     0.315230    -0.792987
 O     0.895031    -1.274203     4.182367
 O    -0.947997     1.466529    -4.058217
