   42
scf done: -3088.604546
 O    -0.129864     0.054622    -2.106492
Ce    -0.014307    -0.162645    -0.110344
 O     1.496516    -0.549348     1.888428
 O     2.377834     0.387998    -0.577510
 N     2.262404     1.640487    -0.493804
 O     3.191599     2.383220    -0.672289
 O     1.107478     2.064394    -0.214135
 O    -1.168834    -0.943553     2.059233
 O    -2.517213    -0.154630    -0.353755
 N    -2.667572     1.052768    -0.039697
 O    -3.744969     1.585935    -0.013681
 O    -1.605079     1.676137     0.250857
 O     1.249924    -2.211867    -0.731460
 N     0.253090    -2.982046    -0.769932
 O     0.348567    -4.144644    -1.056481
 O    -0.858319    -2.448479    -0.489088
Ce    -0.455487     0.409121    -4.128798
 O    -2.262439     1.081525    -5.815344
 O    -2.667554    -0.577927    -3.611740
 N    -2.320754    -1.792598    -3.641551
 O    -3.097986    -2.683370    -3.419896
 O    -1.111499    -2.003652    -3.914749
 O     0.369249     1.828517    -6.089740
 O     1.990616     0.917228    -3.861397
 N     2.393623    -0.249990    -4.093990
 O     3.559764    -0.545343    -4.085586
 O     1.489789    -1.100337    -4.335029
 O    -0.328206    -0.775792    -6.402960
 O    -2.018984     2.069245    -3.074402
 N    -1.191294     3.013167    -3.021861
 O    -1.463164     4.087788    -2.555891
 O    -0.045159     2.756481    -3.490368
 H     1.002145     2.530189    -5.897138
 H    -2.006882    -1.408664     1.949065
 H     0.764417     1.282453    -6.780963
 H    -1.337052    -0.252152     2.711766
 H    -0.020700    -1.689765    -6.397717
 H    -1.189573    -0.778784    -6.839265
 H    -3.159169     1.183439    -5.475321
 H     2.427735    -0.734887     1.718840
 H    -2.042827     1.907363    -6.264569
 H     1.183497    -1.229067     2.497810
