   45
scf done: -3165.208120
Ce    -0.263423     0.274624    -2.047080
Ce     0.278383    -0.285903     2.158818
 H     1.552301    -1.004104    -4.319770
 H    -1.646770     0.848356     4.408030
 H     0.117250    -0.895080    -4.872793
 H    -0.221636     0.830362     4.989213
 H    -2.751382    -0.557963    -3.829391
 H     2.736240     0.652350     3.900969
 H    -2.114651     0.682169    -4.483637
 H     2.241316    -0.666435     4.518960
 H    -0.115651     2.987247    -3.704121
 H     0.157908    -3.059879     3.677743
 H     0.379842     1.852352    -4.619995
 H    -0.327476    -1.968802     4.649262
 N     2.993835    -1.162994     1.130407
 N    -2.958272     1.311010    -1.232464
 N     0.171852    -2.690947    -2.005483
 N    -0.244454     2.717025     2.101622
 N     2.110587     2.070438    -1.676010
 N    -2.068101    -2.137828     1.597958
 O    -0.055034     0.063067    -0.198362
 O     2.116543    -1.990046     1.487271
 O    -1.988574     2.060251    -1.527553
 O     2.705799     0.053393     1.236396
 O    -2.765001     0.077400    -1.333873
 O     4.070703    -1.527799     0.701580
 O    -4.020607     1.767414    -0.868534
 O     0.803632    -0.402851    -4.405173
 O    -0.850890     0.308786     4.476310
 O     1.155158    -1.917707    -1.953968
 O    -1.185464     1.900495     1.964510
 O    -0.963282    -2.153274    -2.117256
 O     0.905433     2.240589     2.281102
 O     0.296173    -3.895422    -1.949706
 O    -0.431849     3.917916     2.062677
 O    -1.907722    -0.181745    -4.105542
 O     1.938366     0.171870     4.149827
 O     0.959300     2.495560    -1.426030
 O    -0.898862    -2.500851     1.328492
 O     2.192209     0.897630    -2.131313
 O    -2.206952    -1.005501     2.128964
 O     3.100078     2.745850    -1.491478
 O    -3.027092    -2.845016     1.358715
 O    -0.327870     2.098280    -4.010864
 O     0.358106    -2.174281     4.001575
