   45
scf done: -3165.209163
Ce     0.434644    -0.012538     2.153916
Ce    -0.484965     0.102480    -1.967668
 H    -0.176052     2.893267     1.201491
 H     0.028160    -2.556413    -0.665536
 H     1.317534     2.918768     1.551662
 H    -1.072229    -2.892072    -1.694277
 H     1.892319     0.662807     4.720063
 H    -1.646841    -0.617990    -4.613666
 H     1.589745     2.085548     4.215110
 H    -1.230838    -2.044834    -4.216382
 H     0.368953    -1.935398     4.696617
 H    -0.093449     1.526124    -4.853179
 H     1.791865    -2.100059     4.142854
 H    -1.444721     2.084067    -4.378017
 N    -2.184369     0.940028     3.371187
 N     2.132618    -0.924097    -3.087249
 N    -0.755140    -2.844804     1.739456
 N     0.427056     2.963936    -1.987501
 N     3.386948    -0.122943     1.397112
 N    -3.442320    -0.098505    -1.520100
 O    -0.186328     0.278849    -0.124798
 O    -2.037705     0.867498     2.127120
 O     1.976184    -0.691490    -1.865408
 O    -1.205969     0.590941     4.080682
 O     1.151390    -0.680264    -3.835852
 O    -3.221405     1.327408     3.870259
 O     3.173950    -1.363546    -3.527660
 O     0.464876     2.581713     1.851521
 O    -0.238671    -2.416903    -1.596626
 O    -1.247571    -2.046737     2.562377
 O     1.193513     2.006178    -2.266304
 O     0.292385    -2.469411     1.134770
 O    -0.768332     2.669911    -1.749874
 O    -1.247974    -3.931429     1.519716
 O     0.827011     4.108050    -1.950746
 O     1.921128     1.224730     3.935167
 O    -1.729145    -1.278446    -3.910088
 O     2.869540    -1.010026     2.119056
 O    -2.883818     0.866322    -2.110664
 O     2.636484     0.807346     1.013598
 O    -2.688758    -1.008005    -1.107481
 O     4.560468    -0.162478     1.084442
 O    -4.643285    -0.133574    -1.365093
 O     1.102916    -1.446288     4.307695
 O    -0.909806     1.282279    -4.401703
